p1.cir
.TITLE Problem 1

Vi  1   0   AC  10V
C1  1   2   0.01U
CGD 2   4   20P
CGS 2   3   50P
RG  0   2   100K
RS  0   3   500
CS  0   3   0.01U
L   4   5   10U
CL  4   5   100P
C2  4   6   0.01U
R3  0   6   100K
VDD 5   0   DC  15V
M1  4   2   3   3   NFET
.MODEL NFET NMOS (LAMBDA=0.02 VTO=-2 KP=5M)

