.AC DEC 1000 1K 1G
.MEASURE AC w0 MAX_AT VM(6)
.PRINT AC VM(6)
.PROBE
.END 
